Version 4
SHEET 1 996 1108
WIRE -144 720 -192 720
WIRE -16 720 -80 720
WIRE 224 800 176 800
WIRE -304 816 -384 816
WIRE -192 816 -192 720
WIRE -192 816 -224 816
WIRE -144 816 -192 816
WIRE -128 816 -144 816
WIRE 416 816 288 816
WIRE -16 832 -16 720
WIRE -16 832 -80 832
WIRE 64 832 -16 832
WIRE 176 832 144 832
WIRE 224 832 176 832
WIRE -144 848 -192 848
WIRE -192 896 -192 848
WIRE 176 944 176 832
WIRE 224 944 176 944
WIRE 416 944 416 816
WIRE 416 944 304 944
WIRE -384 1104 -384 816
WIRE 416 1104 416 944
WIRE 416 1104 -384 1104
FLAG 176 800 0
FLAG -192 896 0
SYMBOL res -208 800 R90
WINDOW 0 0 56 VBottom 2
WINDOW 3 32 56 VTop 2
SYMATTR InstName R1
SYMBOL res 160 816 R90
WINDOW 0 0 56 VBottom 2
WINDOW 3 32 56 VTop 2
SYMATTR InstName R2
SYMBOL OpAmps\\opamp2 -112 768 R0
SYMATTR InstName U1
SYMATTR Value TLC082
SYMBOL OpAmps\\opamp2 256 752 R0
SYMATTR InstName U2
SYMATTR Value LM393
SYMBOL cap -80 704 R90
WINDOW 0 0 32 VBottom 2
WINDOW 3 32 32 VTop 2
SYMATTR InstName C1
SYMBOL res 320 928 R90
WINDOW 0 0 56 VBottom 2
WINDOW 3 32 56 VTop 2
SYMATTR InstName R3
TEXT 80 208 Left 2 !.lib eee305.lib
TEXT 80 240 Left 2 !.lib TLC081.mod
TEXT 80 272 Left 2 !.lib LM393A.5_1
