.model KA3529 d(IS=1.00E-20 N=1.806 RS=2.616247 EG=2.26 XTI=3)